LVNetwork4Feeders/LVNetwork4Feeders-servicelines.dss
new line.serviceLine_L1 bus1=bus_MG1_T1_F1_B2.1 bus2=bus_MG1_T1_F1_L1.1 phases=1 length=10 units=m linecode=4c_16sq
new line.serviceLine_L2 bus1=bus_MG1_T1_F1_B3.2 bus2=bus_MG1_T1_F1_L2.1 phases=1 length=10 units=m linecode=4c_16sq
new line.serviceLine_L3 bus1=bus_MG1_T1_F1_B4.3 bus2=bus_MG1_T1_F1_L3.1 phases=1 length=10 units=m linecode=4c_16sq
new line.serviceLine_L4 bus1=bus_MG1_T1_F1_B5.1 bus2=bus_MG1_T1_F1_L4.1 phases=1 length=10 units=m linecode=4c_16sq
new line.serviceLine_L5 bus1=bus_MG1_T1_F1_B6.2 bus2=bus_MG1_T1_F1_L5.1 phases=1 length=10 units=m linecode=4c_16sq
new line.serviceLine_L6 bus1=bus_MG1_T1_F1_B7.3 bus2=bus_MG1_T1_F1_L6.1 phases=1 length=10 units=m linecode=4c_16sq
new line.serviceLine_L7 bus1=bus_MG1_T1_F1_B8.1 bus2=bus_MG1_T1_F1_L7.1 phases=1 length=10 units=m linecode=4c_16sq
new line.serviceLine_L8 bus1=bus_MG1_T1_F1_B8.2 bus2=bus_MG1_T1_F1_L8.1 phases=1 length=10 units=m linecode=4c_16sq
new line.serviceLine_L9 bus1=bus_MG1_T1_F1_B9.3 bus2=bus_MG1_T1_F1_L9.1 phases=1 length=10 units=m linecode=4c_16sq
new line.serviceLine_L10 bus1=bus_MG1_T1_F1_B9.1 bus2=bus_MG1_T1_F1_L10.1 phases=1 length=10 units=m linecode=4c_16sq
new line.serviceLine_L11 bus1=bus_MG1_T1_F1_B10.2 bus2=bus_MG1_T1_F1_L11.1 phases=1 length=10 units=m linecode=4c_16sq
new line.serviceLine_L12 bus1=bus_MG1_T1_F1_B10.3 bus2=bus_MG1_T1_F1_L12.1 phases=1 length=10 units=m linecode=4c_16sq
new line.serviceLine_L13 bus1=bus_MG1_T1_F1_B11.1 bus2=bus_MG1_T1_F1_L13.1 phases=1 length=10 units=m linecode=4c_16sq
new line.serviceLine_L14 bus1=bus_MG1_T1_F1_B11.2 bus2=bus_MG1_T1_F1_L14.1 phases=1 length=10 units=m linecode=4c_16sq
new line.serviceLine_L15 bus1=bus_MG1_T1_F1_B12.3 bus2=bus_MG1_T1_F1_L15.1 phases=1 length=10 units=m linecode=4c_16sq
new line.serviceLine_L16 bus1=bus_MG1_T1_F1_B13.1 bus2=bus_MG1_T1_F1_L16.1 phases=1 length=10 units=m linecode=4c_16sq
new line.serviceLine_L17 bus1=bus_MG1_T1_F1_B14.2 bus2=bus_MG1_T1_F1_L17.1 phases=1 length=10 units=m linecode=4c_16sq
new line.serviceLine_L18 bus1=bus_MG1_T1_F1_B15.3 bus2=bus_MG1_T1_F1_L18.1 phases=1 length=10 units=m linecode=4c_16sq
new line.serviceLine_L19 bus1=bus_MG1_T1_F1_B16.1 bus2=bus_MG1_T1_F1_L19.1 phases=1 length=10 units=m linecode=4c_16sq
new line.serviceLine_L20 bus1=bus_MG1_T1_F1_B17.2 bus2=bus_MG1_T1_F1_L20.1 phases=1 length=10 units=m linecode=4c_16sq
new line.serviceLine_L21 bus1=bus_MG1_T1_F1_B18.3 bus2=bus_MG1_T1_F1_L21.1 phases=1 length=10 units=m linecode=4c_16sq
new line.serviceLine_L22 bus1=bus_MG1_T1_F1_B18.1 bus2=bus_MG1_T1_F1_L22.1 phases=1 length=10 units=m linecode=4c_16sq
new line.serviceLine_L23 bus1=bus_MG1_T1_F1_B19.2 bus2=bus_MG1_T1_F1_L23.1 phases=1 length=10 units=m linecode=4c_16sq
new line.serviceLine_L24 bus1=bus_MG1_T1_F1_B19.3 bus2=bus_MG1_T1_F1_L24.1 phases=1 length=10 units=m linecode=4c_16sq
new line.serviceLine_L25 bus1=bus_MG1_T1_F1_B20.1 bus2=bus_MG1_T1_F1_L25.1 phases=1 length=10 units=m linecode=4c_16sq
new line.serviceLine_L26 bus1=bus_MG1_T1_F1_B20.2 bus2=bus_MG1_T1_F1_L26.1 phases=1 length=10 units=m linecode=4c_16sq
new line.serviceLine_L27 bus1=bus_MG1_T1_F1_B21.3 bus2=bus_MG1_T1_F1_L27.1 phases=1 length=10 units=m linecode=4c_16sq
new line.serviceLine_L28 bus1=bus_MG1_T1_F1_B21.1 bus2=bus_MG1_T1_F1_L28.1 phases=1 length=10 units=m linecode=4c_16sq
new line.serviceLine_L29 bus1=bus_MG1_T1_F1_B22.2 bus2=bus_MG1_T1_F1_L29.1 phases=1 length=10 units=m linecode=4c_16sq
new line.serviceLine_L30 bus1=bus_MG1_T1_F1_B23.3 bus2=bus_MG1_T1_F1_L30.1 phases=1 length=10 units=m linecode=4c_16sq
new line.serviceLine_L31 bus1=bus_MG1_T1_F1_B24.1 bus2=bus_MG1_T1_F1_L31.1 phases=1 length=10 units=m linecode=4c_16sq
new line.serviceLine_L32 bus1=bus_MG1_T1_F2_B4.2 bus2=bus_MG1_T1_F2_L32.1 phases=1 length=10 units=m linecode=4c_16sq
new line.serviceLine_L33 bus1=bus_MG1_T1_F2_B5.3 bus2=bus_MG1_T1_F2_L33.1 phases=1 length=10 units=m linecode=4c_16sq
new line.serviceLine_L34 bus1=bus_MG1_T1_F2_B6.1 bus2=bus_MG1_T1_F2_L34.1 phases=1 length=10 units=m linecode=4c_16sq
new line.serviceLine_L35 bus1=bus_MG1_T1_F2_B7.2 bus2=bus_MG1_T1_F2_L35.1 phases=1 length=10 units=m linecode=4c_16sq
new line.serviceLine_L36 bus1=bus_MG1_T1_F2_B8.3 bus2=bus_MG1_T1_F2_L36.1 phases=1 length=10 units=m linecode=4c_16sq
new line.serviceLine_L37 bus1=bus_MG1_T1_F2_B9.1 bus2=bus_MG1_T1_F2_L37.1 phases=1 length=10 units=m linecode=4c_16sq
new line.serviceLine_L38 bus1=bus_MG1_T1_F2_B10.2 bus2=bus_MG1_T1_F2_L38.1 phases=1 length=10 units=m linecode=4c_16sq
new line.serviceLine_L39 bus1=bus_MG1_T1_F2_B11.3 bus2=bus_MG1_T1_F2_L39.1 phases=1 length=10 units=m linecode=4c_16sq
new line.serviceLine_L40 bus1=bus_MG1_T1_F2_B12.1 bus2=bus_MG1_T1_F2_L40.1 phases=1 length=10 units=m linecode=4c_16sq
new line.serviceLine_L41 bus1=bus_MG1_T1_F2_B13.2 bus2=bus_MG1_T1_F2_L41.1 phases=1 length=10 units=m linecode=4c_16sq
new line.serviceLine_L42 bus1=bus_MG1_T1_F2_B14.3 bus2=bus_MG1_T1_F2_L42.1 phases=1 length=10 units=m linecode=4c_16sq
new line.serviceLine_L43 bus1=bus_MG1_T1_F2_B15.1 bus2=bus_MG1_T1_F2_L43.1 phases=1 length=10 units=m linecode=4c_16sq
new line.serviceLine_L44 bus1=bus_MG1_T1_F2_B16.2 bus2=bus_MG1_T1_F2_L44.1 phases=1 length=10 units=m linecode=4c_16sq
new line.serviceLine_L45 bus1=bus_MG1_T1_F2_B17.3 bus2=bus_MG1_T1_F2_L45.1 phases=1 length=10 units=m linecode=4c_16sq
new line.serviceLine_L46 bus1=bus_MG1_T1_F2_B19.1 bus2=bus_MG1_T1_F2_L46.1 phases=1 length=10 units=m linecode=4c_16sq
new line.serviceLine_L47 bus1=bus_MG1_T1_F2_B20.2 bus2=bus_MG1_T1_F2_L47.1 phases=1 length=10 units=m linecode=4c_16sq
new line.serviceLine_L48 bus1=bus_MG1_T1_F2_B21.3 bus2=bus_MG1_T1_F2_L48.1 phases=1 length=10 units=m linecode=4c_16sq
new line.serviceLine_L49 bus1=bus_MG1_T1_F2_B22.1 bus2=bus_MG1_T1_F2_L49.1 phases=1 length=10 units=m linecode=4c_16sq
new line.serviceLine_L50 bus1=bus_MG1_T1_F3_B3.2 bus2=bus_MG1_T1_F3_L50.1 phases=1 length=10 units=m linecode=4c_16sq
new line.serviceLine_L51 bus1=bus_MG1_T1_F3_B4.3 bus2=bus_MG1_T1_F3_L51.1 phases=1 length=10 units=m linecode=4c_16sq
new line.serviceLine_L52 bus1=bus_MG1_T1_F3_B5.1 bus2=bus_MG1_T1_F3_L52.1 phases=1 length=10 units=m linecode=4c_16sq
new line.serviceLine_L53 bus1=bus_MG1_T1_F3_B6.2 bus2=bus_MG1_T1_F3_L53.1 phases=1 length=10 units=m linecode=4c_16sq
new line.serviceLine_L54 bus1=bus_MG1_T1_F3_B7.3 bus2=bus_MG1_T1_F3_L54.1 phases=1 length=10 units=m linecode=4c_16sq
new line.serviceLine_L55 bus1=bus_MG1_T1_F3_B8.1 bus2=bus_MG1_T1_F3_L55.1 phases=1 length=10 units=m linecode=4c_16sq
new line.serviceLine_L56 bus1=bus_MG1_T1_F3_B9.2 bus2=bus_MG1_T1_F3_L56.1 phases=1 length=10 units=m linecode=4c_16sq
new line.serviceLine_L57 bus1=bus_MG1_T1_F3_B10.3 bus2=bus_MG1_T1_F3_L57.1 phases=1 length=10 units=m linecode=4c_16sq
new line.serviceLine_L58 bus1=bus_MG1_T1_F3_B11.1 bus2=bus_MG1_T1_F3_L58.1 phases=1 length=10 units=m linecode=4c_16sq
new line.serviceLine_L59 bus1=bus_MG1_T1_F3_B12.2 bus2=bus_MG1_T1_F3_L59.1 phases=1 length=10 units=m linecode=4c_16sq
new line.serviceLine_L60 bus1=bus_MG1_T1_F3_B12.3 bus2=bus_MG1_T1_F3_L60.1 phases=1 length=10 units=m linecode=4c_16sq
new line.serviceLine_L61 bus1=bus_MG1_T1_F4_B3.1 bus2=bus_MG1_T1_F4_L61.1 phases=1 length=10 units=m linecode=4c_16sq
new line.serviceLine_L62 bus1=bus_MG1_T1_F4_B4.2 bus2=bus_MG1_T1_F4_L62.1 phases=1 length=10 units=m linecode=4c_16sq
new line.serviceLine_L63 bus1=bus_MG1_T1_F4_B5.3 bus2=bus_MG1_T1_F4_L63.1 phases=1 length=10 units=m linecode=4c_16sq
new line.serviceLine_L64 bus1=bus_MG1_T1_F4_B6.1 bus2=bus_MG1_T1_F4_L64.1 phases=1 length=10 units=m linecode=4c_16sq
new line.serviceLine_L65 bus1=bus_MG1_T1_F4_B7.2 bus2=bus_MG1_T1_F4_L65.1 phases=1 length=10 units=m linecode=4c_16sq
new line.serviceLine_L66 bus1=bus_MG1_T1_F4_B8.3 bus2=bus_MG1_T1_F4_L66.1 phases=1 length=10 units=m linecode=4c_16sq
new line.serviceLine_L67 bus1=bus_MG1_T1_F4_B9.1 bus2=bus_MG1_T1_F4_L67.1 phases=1 length=10 units=m linecode=4c_16sq
new line.serviceLine_L68 bus1=bus_MG1_T1_F4_B9.2 bus2=bus_MG1_T1_F4_L68.1 phases=1 length=10 units=m linecode=4c_16sq
new line.serviceLine_L69 bus1=bus_MG1_T1_F4_B10.3 bus2=bus_MG1_T1_F4_L69.1 phases=1 length=10 units=m linecode=4c_16sq
new line.serviceLine_L70 bus1=bus_MG1_T1_F4_B11.1 bus2=bus_MG1_T1_F4_L70.1 phases=1 length=10 units=m linecode=4c_16sq
new line.serviceLine_L71 bus1=bus_MG1_T1_F4_B11.2 bus2=bus_MG1_T1_F4_L71.1 phases=1 length=10 units=m linecode=4c_16sq
new line.serviceLine_L72 bus1=bus_MG1_T1_F4_B12.3 bus2=bus_MG1_T1_F4_L72.1 phases=1 length=10 units=m linecode=4c_16sq
new line.serviceLine_L73 bus1=bus_MG1_T1_F4_B13.1 bus2=bus_MG1_T1_F4_L73.1 phases=1 length=10 units=m linecode=4c_16sq
new line.serviceLine_L74 bus1=bus_MG1_T1_F4_B14.2 bus2=bus_MG1_T1_F4_L74.1 phases=1 length=10 units=m linecode=4c_16sq
new line.serviceLine_L75 bus1=bus_MG1_T1_F4_B15.3 bus2=bus_MG1_T1_F4_L75.1 phases=1 length=10 units=m linecode=4c_16sq
new line.serviceLine_L76 bus1=bus_MG1_T1_F4_B15.1 bus2=bus_MG1_T1_F4_L76.1 phases=1 length=10 units=m linecode=4c_16sq
new line.serviceLine_L77 bus1=bus_MG1_T1_F4_B16.2 bus2=bus_MG1_T1_F4_L77.1 phases=1 length=10 units=m linecode=4c_16sq
new line.serviceLine_L78 bus1=bus_MG1_T1_F4_B16.3 bus2=bus_MG1_T1_F4_L78.1 phases=1 length=10 units=m linecode=4c_16sq
new line.serviceLine_L79 bus1=bus_MG1_T1_F4_B17.1 bus2=bus_MG1_T1_F4_L79.1 phases=1 length=10 units=m linecode=4c_16sq
new line.serviceLine_L80 bus1=bus_MG1_T1_F4_B17.2 bus2=bus_MG1_T1_F4_L80.1 phases=1 length=10 units=m linecode=4c_16sq
new line.serviceLine_L81 bus1=bus_MG1_T1_F4_B18.3 bus2=bus_MG1_T1_F4_L81.1 phases=1 length=10 units=m linecode=4c_16sq
new line.serviceLine_L82 bus1=bus_MG1_T1_F4_B18.1 bus2=bus_MG1_T1_F4_L82.1 phases=1 length=10 units=m linecode=4c_16sq
new line.serviceLine_L83 bus1=bus_MG1_T1_F4_B19.2 bus2=bus_MG1_T1_F4_L83.1 phases=1 length=10 units=m linecode=4c_16sq
new line.serviceLine_L84 bus1=bus_MG1_T1_F4_B19.3 bus2=bus_MG1_T1_F4_L84.1 phases=1 length=10 units=m linecode=4c_16sq
new line.serviceLine_L85 bus1=bus_MG1_T1_F4_B20.1 bus2=bus_MG1_T1_F4_L85.1 phases=1 length=10 units=m linecode=4c_16sq
new line.serviceLine_L86 bus1=bus_MG1_T1_F4_B20.2 bus2=bus_MG1_T1_F4_L86.1 phases=1 length=10 units=m linecode=4c_16sq
new line.serviceLine_L87 bus1=bus_MG1_T1_F4_B21.3 bus2=bus_MG1_T1_F4_L87.1 phases=1 length=10 units=m linecode=4c_16sq
new line.serviceLine_L88 bus1=bus_MG1_T1_F4_B22.1 bus2=bus_MG1_T1_F4_L88.1 phases=1 length=10 units=m linecode=4c_16sq
new line.serviceLine_L89 bus1=bus_MG1_T1_F4_B23.2 bus2=bus_MG1_T1_F4_L89.1 phases=1 length=10 units=m linecode=4c_16sq